   26
Geometry Step: 0
    Ag      1.25075960      2.14213374      0.00000000      4.07303644
    Ag      1.24123304      3.53868221      0.00000000      4.09937726
    Ag      2.45544053      1.43558803      0.00000000      4.09938243
    Ag      2.45071473      4.26119999      0.00000000      3.96217805
    C      2.47868850      5.69868545      0.00000000      4.09505463
    C      3.68589459      2.12177999      0.00000000      3.96217635
    C      3.68639010      3.54833238      0.00000000      3.99015588
    C      4.94477844      1.42724135      0.00000000      4.09506050
    C      4.92190990      4.26166762      0.00000000      3.99015588
    C     3.66352156      6.38275865      0.00000000      4.09506050
    C      4.92240541      5.68822001      0.00000000      3.96217635
    C      6.12961150      2.11131455      0.00000000      4.09505463
    C      6.15758527      3.54880001      0.00000000      3.96217805
    C      7.36706696      4.27131779      0.00000000      4.09937726
    C      6.15285947      6.37441197      0.00000000      4.09938243
    C      7.35754040      5.66786626      0.00000000      4.07303644
    H      0.29918940      1.59273333      0.00000000      0.92578402
    H      0.28497998      4.08144936      0.00000000      0.92491284
    H      2.44734106      0.33607157      0.00000000      0.92490906
    H      1.52403543      6.24506531      0.00000000      0.92398856
    H      4.94061169      0.32730427      0.00000000      0.92398399
    H      3.66768831      7.48269573      0.00000000      0.92398399
    H      7.08426457      1.56493469      0.00000000      0.92398856
    H      8.32332002      3.72855064      0.00000000      0.92491284
    H      6.16095894      7.47392843      0.00000000      0.92490906
    H      8.30911060      6.21726667      0.00000000      0.92578403
